data/ieee_13_aw_edit/IEEE13Nodeckt_Power_elem_kVA.txt

CIRCUIT ELEMENT POWER FLOW

(Power Flow into element from indicated Bus)

Power Delivery Elements

  Bus Phase     kW     +j   kvar         kVA         PF

ELEMENT = "Vsource.SOURCE"
RG60     1     -1286.8 +j   -599.7     1419.7       0.9064
RG60     2      -924.8 +j   -420.3     1015.9       0.9104
RG60     3     -1340.9 +j   -631.9     1482.3       0.9046
   TERMINAL TOTAL -3552.5 +j  -1651.9     3917.8       0.9068
RG60     0         0.0 +j      0.0        0.0       1.0000
RG60     0         0.0 +j      0.0        0.0       1.0000
RG60     0         0.0 +j      0.0        0.0       1.0000
   TERMINAL TOTAL     0.0 +j      0.0        0.0       1.0000

ELEMENT = "Capacitor.CAP1"
675      1         0.0 +j   -193.6      193.6       1.0000
675      2         0.0 +j   -207.5      207.5       1.0000
675      3         0.0 +j   -185.4      185.4       1.0000
   TERMINAL TOTAL     0.0 +j   -586.5      586.5       1.0000
675      0         0.0 +j      0.0        0.0       1.0000
675      0         0.0 +j      0.0        0.0       1.0000
675      0         0.0 +j      0.0        0.0       1.0000
   TERMINAL TOTAL     0.0 +j      0.0        0.0       1.0000

ELEMENT = "Capacitor.CAP2"
611      3         0.0 +j    -94.0       94.0       1.0000
   TERMINAL TOTAL     0.0 +j    -94.0       94.0       1.0000
611      0         0.0 +j      0.0        0.0       1.0000
   TERMINAL TOTAL     0.0 +j      0.0        0.0       1.0000

ELEMENT = "Line.RG60632"
RG60     1      1286.8 +j    599.7     1419.7       0.9064
RG60     2       924.8 +j    420.3     1015.9       0.9104
RG60     3      1340.9 +j    631.9     1482.3       0.9046
   TERMINAL TOTAL  3552.5 +j   1651.9     3917.8       0.9068
632      1     -1269.5 +j   -516.3     1370.5       0.9263
632      2      -925.6 +j   -394.0     1006.0       0.9201
632      3     -1294.9 +j   -542.5     1403.9       0.9223
   TERMINAL TOTAL -3490.1 +j  -1452.8     3780.3       0.9232

ELEMENT = "Line.632670"
632      1        17.0 +j     10.0       19.7       0.8620
632      2        66.1 +j     38.0       76.3       0.8666
632      3       117.1 +j     68.4      135.6       0.8634
   TERMINAL TOTAL   200.1 +j    116.4      231.5       0.8644
670      1       -17.0 +j    -10.0       19.7       0.8619
670      2       -66.0 +j    -38.0       76.2       0.8666
670      3      -117.0 +j    -68.0      135.3       0.8646
   TERMINAL TOTAL  -200.0 +j   -116.0      231.2       0.8650

ELEMENT = "Line.671680"
671      1        -0.0 +j     -0.0        0.0       0.0127
671      2         0.0 +j     -0.0        0.0      -0.0078
671      3         0.0 +j     -0.0        0.0      -0.0045
   TERMINAL TOTAL     0.0 +j     -0.0        0.0      -0.0000
680      1         0.0 +j     -0.0        0.0      -0.5549
680      2        -0.0 +j     -0.0        0.0       0.0268
680      3         0.0 +j      0.0        0.0       0.6407
   TERMINAL TOTAL     0.0 +j     -0.0        0.0      -0.5419

ELEMENT = "Line.633634"
633      1       765.8 +j    261.8      809.3       0.9462
633      2       366.2 +j     88.6      376.8       0.9720
633      3       585.9 +j    241.0      633.5       0.9248
   TERMINAL TOTAL  1717.9 +j    591.4     1816.8       0.9455
634      1      -760.5 +j   -251.3      800.9       0.9495
634      2      -366.0 +j    -87.5      376.3       0.9726
634      3      -579.0 +j   -236.3      625.3       0.9259
   TERMINAL TOTAL -1705.5 +j   -575.1     1799.8       0.9476

ELEMENT = "Line.645646"
645      3       592.0 +j    233.1      636.2       0.9305
645      2       323.3 +j    142.3      353.2       0.9153
645      1       486.8 +j    244.5      544.7       0.8936
   TERMINAL TOTAL  1402.1 +j    619.9     1533.0       0.9146
646      3      -588.7 +j   -229.7      632.0       0.9316
646      2      -322.5 +j   -141.7      352.3       0.9155
646      1      -485.8 +j   -242.1      542.8       0.8950
   TERMINAL TOTAL -1397.1 +j   -613.5     1525.8       0.9156

ELEMENT = "Line.692675"
692      1      -115.1 +j   -144.8      185.0       0.6224
692      2      -177.5 +j   -144.7      229.1       0.7751
692      3      -168.7 +j   -119.4      206.7       0.8163
   TERMINAL TOTAL  -461.4 +j   -408.9      616.5       0.7484
675      1       115.4 +j    144.9      185.2       0.6231
675      2       178.0 +j    145.0      229.6       0.7754
675      3       169.0 +j    119.8      207.2       0.8160
   TERMINAL TOTAL   462.5 +j    409.6      617.8       0.7486

ELEMENT = "Line.671684"
671      1      -354.9 +j   -150.7      385.6       0.9204
671      3      -301.2 +j   -176.1      348.9       0.8634
671      2      -207.5 +j    -75.3      220.7       0.9401
   TERMINAL TOTAL  -863.6 +j   -402.1      952.6       0.9066
684      1       355.8 +j    152.2      387.0       0.9194
684      3       302.4 +j    177.1      350.4       0.8629
684      2       207.5 +j     75.5      220.8       0.9398
   TERMINAL TOTAL   865.6 +j    404.7      955.6       0.9059

ELEMENT = "Line.684611"
684      3      -302.4 +j   -177.1      350.4       0.8629
684      2      -207.5 +j    -75.5      220.8       0.9398
684      1      -484.3 +j   -239.0      540.0       0.8967
   TERMINAL TOTAL  -994.1 +j   -491.5     1109.0       0.8964
611      3       303.8 +j    177.8      351.9       0.8631
611      2       207.5 +j     75.7      220.9       0.9394
611      1       485.8 +j    242.1      542.8       0.8950
   TERMINAL TOTAL   997.1 +j    495.5     1113.4       0.8955

ELEMENT = "Line.684652"
684      1       128.5 +j     86.8      155.1       0.8287
684      2         0.0 +j     -0.0        0.0      -0.0075
684      3         0.0 +j     -0.0        0.0      -0.0037
   TERMINAL TOTAL   128.5 +j     86.8      155.1       0.8287
652      1      -128.0 +j    -86.0      154.2       0.8300
652      2         0.0 +j      0.0        0.0       0.5467
652      3        -0.0 +j     -0.0        0.0       0.3174
   TERMINAL TOTAL  -128.0 +j    -86.0      154.2       0.8300

ELEMENT = "Line.671692"
671      1       -30.1 +j    -69.3       75.5       0.3987
671      2      -177.5 +j   -144.7      229.1       0.7751
671      3       -83.7 +j    -43.9       94.5       0.8856
   TERMINAL TOTAL  -291.4 +j   -257.9      389.1       0.7488
692      1        30.1 +j     69.3       75.5       0.3987
692      2       177.5 +j    144.7      229.1       0.7751
692      3        83.7 +j     43.9       94.5       0.8856
   TERMINAL TOTAL   291.4 +j    257.9      389.1       0.7488

ELEMENT = "Line.646611"
646      1       485.8 +j    242.1      542.8       0.8950
646      2       207.5 +j     75.7      220.9       0.9394
646      3       473.7 +j    163.7      501.2       0.9451
   TERMINAL TOTAL  1167.1 +j    481.5     1262.5       0.9244
611      1      -485.8 +j   -242.1      542.8       0.8950
611      2      -207.5 +j    -75.7      220.9       0.9394
611      3      -473.7 +j   -163.7      501.2       0.9451
   TERMINAL TOTAL -1167.1 +j   -481.5     1262.5       0.9244

ELEMENT = "Line.634675"
634      1       600.5 +j    141.3      616.9       0.9734
634      2       246.0 +j     -2.5      246.0      -0.9999
634      3       459.0 +j    146.3      481.7       0.9528
   TERMINAL TOTAL  1305.5 +j    285.1     1336.2       0.9770
675      1      -600.5 +j   -141.3      616.9       0.9734
675      2      -246.0 +j      2.5      246.0      -0.9999
675      3      -459.0 +j   -146.3      481.7       0.9528
   TERMINAL TOTAL -1305.5 +j   -285.1     1336.2       0.9770

ELEMENT = "Line.632645"
632      1       486.8 +j    244.5      544.7       0.8936
632      2       493.3 +j    267.3      561.1       0.8792
632      3       592.0 +j    233.1      636.2       0.9305
   TERMINAL TOTAL  1572.1 +j    744.9     1739.6       0.9037
645      1      -486.8 +j   -244.5      544.7       0.8936
645      2      -493.3 +j   -267.3      561.1       0.8792
645      3      -592.0 +j   -233.1      636.2       0.9305
   TERMINAL TOTAL -1572.1 +j   -744.9     1739.6       0.9037

ELEMENT = "Line.632633"
632      1       765.8 +j    261.8      809.3       0.9462
632      2       366.2 +j     88.6      376.8       0.9720
632      3       585.9 +j    241.0      633.5       0.9248
   TERMINAL TOTAL  1717.9 +j    591.4     1816.8       0.9455
633      1      -765.8 +j   -261.8      809.3       0.9462
633      2      -366.2 +j    -88.6      376.8       0.9720
633      3      -585.9 +j   -241.0      633.5       0.9248
   TERMINAL TOTAL -1717.9 +j   -591.4     1816.8       0.9455

= = = = = = = = = = = = = = = = = = =  = = = = = = = = = = =  = =

Power Conversion Elements

  Bus Phase     kW   +j  kvar         kVA         PF

ELEMENT = "Load.671"
671      1     385.0 +j  220.0      443.4       0.8682
671      2     385.0 +j  220.0      443.4       0.8682
671      3     385.0 +j  220.0      443.4       0.8683
671      0       0.0 +j    0.0        0.0       1.0000
  TERMINAL TOTAL   1155.0 +j    660.0     1330.3       0.8682

ELEMENT = "Load.634A"
634      1     160.0 +j  110.0      194.2       0.8240
634      0       0.0 +j    0.0        0.0       1.0000
  TERMINAL TOTAL    160.0 +j    110.0      194.2       0.8240

ELEMENT = "Load.634B"
634      2     120.0 +j   90.0      150.0       0.8000
634      0       0.0 +j    0.0        0.0       1.0000
  TERMINAL TOTAL    120.0 +j     90.0      150.0       0.8000

ELEMENT = "Load.634C"
634      3     120.0 +j   90.0      150.0       0.8000
634      0       0.0 +j    0.0        0.0       1.0000
  TERMINAL TOTAL    120.0 +j     90.0      150.0       0.8000

ELEMENT = "Load.645B"
645      2     170.0 +j  125.0      211.0       0.8056
645      0       0.0 +j    0.0        0.0       1.0000
  TERMINAL TOTAL    170.0 +j    125.0      211.0       0.8056

ELEMENT = "Load.646BC"
646      2     115.0 +j   66.0      132.6       0.8673
646      3     115.0 +j   66.0      132.6       0.8673
646      0       0.0 +j    0.0        0.0       1.0000
  TERMINAL TOTAL    230.0 +j    132.0      265.2       0.8673

ELEMENT = "Load.692"
692      3      85.0 +j   75.5      113.7       0.7477
692      1      85.0 +j   75.5      113.7       0.7477
692      0       0.0 +j    0.0        0.0       1.0000
  TERMINAL TOTAL    170.0 +j    151.0      227.4       0.7477

ELEMENT = "Load.675A"
675      1     485.0 +j  190.0      520.9       0.9311
675      0       0.0 +j    0.0        0.0       1.0000
  TERMINAL TOTAL    485.0 +j    190.0      520.9       0.9311

ELEMENT = "Load.675B"
675      2      68.0 +j   60.0       90.7       0.7498
675      0       0.0 +j    0.0        0.0       1.0000
  TERMINAL TOTAL     68.0 +j     60.0       90.7       0.7498

ELEMENT = "Load.675C"
675      3     290.0 +j  212.0      359.2       0.8073
675      0       0.0 +j    0.0        0.0       1.0000
  TERMINAL TOTAL    290.0 +j    212.0      359.2       0.8073

ELEMENT = "Load.611C"
611      3     170.0 +j   80.0      187.9       0.9048
611      0       0.0 +j    0.0        0.0       1.0000
  TERMINAL TOTAL    170.0 +j     80.0      187.9       0.9048

ELEMENT = "Load.652"
652      1     128.0 +j   86.0      154.2       0.8300
652      0       0.0 +j    0.0        0.0       1.0000
  TERMINAL TOTAL    128.0 +j     86.0      154.2       0.8300

ELEMENT = "Load.670A"
670      1      17.0 +j   10.0       19.7       0.8619
670      0       0.0 +j    0.0        0.0       1.0000
  TERMINAL TOTAL     17.0 +j     10.0       19.7       0.8619

ELEMENT = "Load.670B"
670      2      66.0 +j   38.0       76.2       0.8666
670      0       0.0 +j    0.0        0.0       1.0000
  TERMINAL TOTAL     66.0 +j     38.0       76.2       0.8666

ELEMENT = "Load.670C"
670      3     117.0 +j   68.0      135.3       0.8646
670      0       0.0 +j    0.0        0.0       1.0000
  TERMINAL TOTAL    117.0 +j     68.0      135.3       0.8646


Total Circuit Losses =   86.5 +j  230.5
